Version 4
SHEET 1 2420 4980
WIRE 112 1824 -144 1824
WIRE 368 1824 192 1824
WIRE 304 1904 304 1888
WIRE 32 2032 -64 2032
WIRE 304 2032 304 1984
WIRE 304 2032 256 2032
WIRE 32 2096 -80 2096
WIRE -368 2160 -448 2160
WIRE -272 2160 -368 2160
WIRE -144 2160 -144 1824
WIRE -144 2160 -192 2160
WIRE 32 2160 -144 2160
WIRE 368 2160 368 1824
WIRE 368 2160 256 2160
WIRE -368 2224 -368 2160
WIRE 32 2224 -16 2224
WIRE 304 2224 256 2224
WIRE -16 2272 -16 2224
WIRE 304 2272 304 2224
WIRE -16 2368 -16 2352
WIRE 304 2368 304 2336
WIRE -80 2416 -80 2096
WIRE 368 2416 368 2160
WIRE 368 2416 -80 2416
WIRE -80 2432 -80 2416
WIRE -368 2512 -368 2288
WIRE -80 2512 -80 2496
WIRE 176 2976 80 2976
WIRE 80 3008 80 2976
WIRE -96 3120 -368 3120
WIRE 80 3120 80 3088
WIRE 80 3120 -96 3120
WIRE 224 3120 80 3120
WIRE 288 3184 -272 3184
WIRE -368 3248 -368 3120
WIRE -32 3248 -64 3248
WIRE 224 3248 224 3120
WIRE 224 3248 192 3248
WIRE -32 3312 -240 3312
WIRE 288 3312 288 3184
WIRE 288 3312 192 3312
WIRE -368 3360 -368 3328
WIRE -272 3360 -272 3184
WIRE -272 3360 -368 3360
WIRE -32 3376 -144 3376
WIRE 224 3376 192 3376
WIRE -368 3392 -368 3360
WIRE -96 3440 -96 3120
WIRE -32 3440 -96 3440
WIRE 288 3440 192 3440
WIRE 288 3488 288 3440
WIRE -368 3536 -368 3472
WIRE 288 3600 288 3552
WIRE -368 3648 -368 3616
WIRE -240 3648 -240 3312
WIRE -240 3648 -368 3648
WIRE 224 3648 224 3376
WIRE 224 3648 -240 3648
WIRE -240 3680 -240 3648
WIRE -240 3776 -240 3744
WIRE 160 4112 64 4112
WIRE 64 4144 64 4112
WIRE 992 4224 880 4224
WIRE 1136 4224 1072 4224
WIRE -112 4256 -384 4256
WIRE 64 4256 64 4224
WIRE 64 4256 -112 4256
WIRE 208 4256 64 4256
WIRE 272 4320 -288 4320
WIRE 880 4320 880 4224
WIRE 992 4320 880 4320
WIRE 1136 4320 1136 4224
WIRE 1136 4320 1056 4320
WIRE -384 4384 -384 4256
WIRE -48 4384 -80 4384
WIRE 208 4384 208 4256
WIRE 208 4384 176 4384
WIRE 1168 4384 1024 4384
WIRE 1312 4384 1248 4384
WIRE -48 4448 -256 4448
WIRE 272 4448 272 4320
WIRE 272 4448 176 4448
WIRE 1024 4464 1024 4384
WIRE 560 4480 464 4480
WIRE 880 4480 880 4320
WIRE 880 4480 640 4480
WIRE 992 4480 880 4480
WIRE -384 4496 -384 4464
WIRE -288 4496 -288 4320
WIRE -288 4496 -384 4496
WIRE 1136 4496 1136 4320
WIRE 1136 4496 1056 4496
WIRE 1168 4496 1136 4496
WIRE -48 4512 -160 4512
WIRE 208 4512 176 4512
WIRE 992 4512 912 4512
WIRE -384 4528 -384 4496
WIRE -112 4576 -112 4256
WIRE -48 4576 -112 4576
WIRE 272 4576 176 4576
WIRE 912 4576 912 4512
WIRE 1024 4592 1024 4528
WIRE 1168 4592 1024 4592
WIRE 1312 4592 1248 4592
WIRE 272 4624 272 4576
WIRE -384 4672 -384 4608
WIRE 912 4720 912 4656
WIRE 272 4736 272 4688
WIRE -384 4784 -384 4752
WIRE -256 4784 -256 4448
WIRE -256 4784 -384 4784
WIRE 208 4784 208 4512
WIRE 208 4784 -256 4784
WIRE -256 4816 -256 4784
WIRE -160 4832 -160 4512
WIRE 464 4832 464 4480
WIRE 464 4832 -160 4832
WIRE -256 4912 -256 4880
FLAG -368 2512 0
FLAG -16 2368 0
FLAG 304 2368 0
FLAG 304 1888 0
FLAG -448 2160 Vo1
FLAG -80 2512 0
FLAG -64 3248 0
FLAG -240 3776 0
FLAG 288 3600 0
FLAG 176 2976 0
FLAG -80 4384 0
FLAG -256 4912 0
FLAG 272 4736 0
FLAG 160 4112 0
FLAG 1312 4384 0
FLAG 912 4720 0
FLAG 1312 4592 0
FLAG -64 2032 0
SYMBOL Misc\\NE555 144 2128 R0
SYMATTR InstName U1
SYMBOL ind -288 2176 R270
WINDOW 0 32 56 VTop 2
WINDOW 3 5 56 VBottom 2
SYMATTR InstName L1
SYMATTR Value 470µ
SYMBOL cap -384 2224 R0
SYMATTR InstName C1f
SYMATTR Value 1µ
SYMBOL voltage -16 2256 R0
WINDOW 123 0 0 Left 0
WINDOW 39 0 0 Left 0
SYMATTR InstName V1
SYMATTR Value 4.5
SYMBOL cap 288 2272 R0
SYMATTR InstName C_V
SYMATTR Value 100n
SYMBOL voltage 304 2000 R180
WINDOW 0 24 96 Left 2
WINDOW 3 24 16 Left 2
WINDOW 123 0 0 Left 0
WINDOW 39 0 0 Left 0
SYMATTR InstName Vcc
SYMATTR Value 4.5
SYMBOL res 208 1808 R90
WINDOW 0 0 56 VBottom 2
WINDOW 3 32 56 VTop 2
SYMATTR InstName R1
SYMATTR Value 6.8k
SYMBOL cap -96 2432 R0
SYMATTR InstName C
SYMATTR Value 10n
SYMBOL Misc\\NE555 80 3344 R0
SYMATTR InstName U6
SYMBOL voltage 80 3104 R180
WINDOW 0 24 96 Left 2
WINDOW 3 24 16 Left 2
SYMATTR InstName Vcc1
SYMATTR Value 5
SYMBOL cap -256 3680 R0
SYMATTR InstName C1
SYMATTR Value 4.7n
SYMBOL cap 272 3488 R0
SYMATTR InstName C_V1
SYMATTR Value 10n
SYMBOL res -384 3232 R0
SYMATTR InstName R_A
SYMATTR Value 1k
SYMBOL res -384 3376 R0
SYMATTR InstName R_B
SYMATTR Value 15k
SYMBOL res -384 3520 R0
SYMATTR InstName RB_pot
SYMATTR Value 0
SYMBOL Misc\\NE555 64 4480 R0
SYMATTR InstName U8
SYMBOL voltage 64 4240 R180
WINDOW 0 24 96 Left 2
WINDOW 3 24 16 Left 2
SYMATTR InstName Vcc2
SYMATTR Value 5
SYMBOL cap -272 4816 R0
SYMATTR InstName C2
SYMATTR Value 4.7n
SYMBOL cap 256 4624 R0
SYMATTR InstName C_V2
SYMATTR Value 10n
SYMBOL res -400 4368 R0
SYMATTR InstName R_A1
SYMATTR Value 1k
SYMBOL res -400 4512 R0
SYMATTR InstName R_B1
SYMATTR Value 15k
SYMBOL res -400 4656 R0
SYMATTR InstName RB_pot1
SYMATTR Value 0
SYMBOL OpAmps\\LT1056 1024 4432 R0
SYMATTR InstName U7
SYMBOL voltage 1152 4384 R270
WINDOW 0 32 56 VTop 2
WINDOW 3 -32 56 VBottom 2
SYMATTR InstName V9
SYMATTR Value 12
SYMBOL cap 1056 4304 R90
WINDOW 0 0 32 VBottom 2
WINDOW 3 32 32 VTop 2
SYMATTR InstName C10
SYMATTR Value 4.7n
SYMBOL voltage 912 4560 R0
SYMATTR InstName V_ref
SYMATTR Value 2.5
SYMBOL res 656 4464 R90
WINDOW 0 0 56 VBottom 2
WINDOW 3 32 56 VTop 2
SYMATTR InstName R_in
SYMATTR Value 47k
SYMBOL voltage 1264 4592 R90
WINDOW 0 -32 56 VBottom 2
WINDOW 3 32 56 VTop 2
SYMATTR InstName V10
SYMATTR Value 12
SYMBOL res 1088 4208 R90
WINDOW 0 0 56 VBottom 2
WINDOW 3 32 56 VTop 2
SYMATTR InstName R_par
SYMATTR Value 470k
TEXT -608 1920 Left 2 !.tran 0.1
TEXT -8 1704 Left 2 ;Senoidal
TEXT -504 3576 Left 2 ;[0, 120k]
TEXT -152 3352 Left 2 ;Out
TEXT -144 3000 Left 2 ;Cuadrada
TEXT -520 4712 Left 2 ;[0, 120k]
TEXT -168 4488 Left 2 ;Out
TEXT -160 4136 Left 2 ;Triangular
TEXT 1152 4472 Left 2 ;Out
