Version 4
SHEET 1 1608 1784
WIRE 112 -144 -144 -144
WIRE 368 -144 192 -144
WIRE 304 -64 304 -80
WIRE 32 64 -80 64
WIRE 304 64 304 16
WIRE 304 64 256 64
WIRE -80 80 -80 64
WIRE 32 128 -80 128
WIRE -368 192 -448 192
WIRE -272 192 -368 192
WIRE -144 192 -144 -144
WIRE -144 192 -192 192
WIRE 32 192 -144 192
WIRE 368 192 368 -144
WIRE 368 192 256 192
WIRE -368 256 -368 192
WIRE 32 256 -16 256
WIRE 304 256 256 256
WIRE -16 304 -16 256
WIRE 304 304 304 256
WIRE -16 400 -16 384
WIRE 304 400 304 368
WIRE -80 448 -80 128
WIRE 368 448 368 192
WIRE 368 448 -80 448
WIRE -80 464 -80 448
WIRE -368 544 -368 320
WIRE -80 544 -80 528
WIRE -1744 816 -1952 816
WIRE -992 848 -1296 848
WIRE -1456 912 -1488 912
WIRE -1264 912 -1456 912
WIRE -992 912 -992 848
WIRE -992 912 -1040 912
WIRE -896 912 -992 912
WIRE -784 912 -816 912
WIRE -1456 976 -1456 912
WIRE -1376 976 -1392 976
WIRE -1264 976 -1376 976
WIRE -912 976 -1040 976
WIRE -1840 992 -1840 960
WIRE 848 992 704 992
WIRE -1744 1008 -1744 816
WIRE -1744 1008 -1808 1008
WIRE -1952 1024 -1952 816
WIRE -1952 1024 -2000 1024
WIRE -1872 1024 -1952 1024
WIRE -16 1024 -224 1024
WIRE 48 1024 -16 1024
WIRE 704 1024 704 992
WIRE 704 1024 48 1024
WIRE 848 1024 848 992
WIRE -1744 1040 -1808 1040
WIRE -1664 1040 -1744 1040
WIRE -1264 1040 -1600 1040
WIRE -912 1040 -912 976
WIRE -912 1040 -1040 1040
WIRE -1744 1056 -1744 1040
WIRE -16 1072 -16 1024
WIRE -1840 1088 -1840 1056
WIRE -1024 1088 -1040 1088
WIRE -944 1088 -960 1088
WIRE -1296 1104 -1296 848
WIRE -1264 1104 -1296 1104
WIRE -944 1104 -944 1088
WIRE -1296 1120 -1296 1104
WIRE -1744 1136 -1744 1120
WIRE -224 1136 -224 1024
WIRE 224 1136 128 1136
WIRE 704 1136 704 1024
WIRE 704 1136 448 1136
WIRE 848 1168 848 1104
WIRE 848 1168 736 1168
WIRE 848 1184 848 1168
WIRE 224 1200 176 1200
WIRE 736 1200 736 1168
WIRE 736 1200 448 1200
WIRE -1376 1232 -1376 976
WIRE -1296 1232 -1296 1200
WIRE -1296 1232 -1376 1232
WIRE -912 1232 -912 1040
WIRE -912 1232 -1296 1232
WIRE -16 1264 -16 1152
WIRE -16 1264 -96 1264
WIRE 224 1264 -16 1264
WIRE 576 1264 448 1264
WIRE 48 1328 48 1024
WIRE 224 1328 48 1328
WIRE 576 1328 576 1264
WIRE 848 1328 848 1264
WIRE 848 1328 576 1328
WIRE 848 1360 848 1328
WIRE 848 1456 848 1424
WIRE -224 1472 -224 1216
WIRE 128 1472 128 1136
WIRE 128 1472 -224 1472
WIRE 176 1472 176 1200
WIRE 576 1472 576 1328
WIRE 576 1472 176 1472
FLAG -80 80 0
FLAG -368 544 0
FLAG -16 400 0
FLAG 304 400 0
FLAG 304 -80 0
FLAG -448 192 Vo1
FLAG -80 544 0
FLAG -944 1104 0
FLAG -784 912 0
FLAG -1744 1136 0
FLAG -1840 880 0
FLAG -1840 1168 0
FLAG -1488 912 0
FLAG 848 1456 0
FLAG 128 1472 0
SYMBOL Misc\\NE555 144 160 R0
SYMATTR InstName U1
SYMBOL ind -288 208 R270
WINDOW 0 32 56 VTop 2
WINDOW 3 5 56 VBottom 2
SYMATTR InstName L1
SYMATTR Value 470µ
SYMBOL cap -384 256 R0
SYMATTR InstName C1
SYMATTR Value 1µ
SYMBOL voltage -16 288 R0
WINDOW 123 0 0 Left 0
WINDOW 39 0 0 Left 0
SYMATTR InstName V1
SYMATTR Value 4.5
SYMBOL cap 288 304 R0
SYMATTR InstName C2
SYMATTR Value 100n
SYMBOL voltage 304 32 R180
WINDOW 0 24 96 Left 2
WINDOW 3 24 16 Left 2
WINDOW 123 0 0 Left 0
WINDOW 39 0 0 Left 0
SYMATTR InstName V2
SYMATTR Value 4.5
SYMBOL res 208 -160 R90
WINDOW 0 0 56 VBottom 2
WINDOW 3 32 56 VTop 2
SYMATTR InstName R1
SYMATTR Value 2.2k
SYMBOL cap -96 464 R0
SYMATTR InstName C3
SYMATTR Value 10n
SYMBOL Misc\\NE555 -1152 1008 R0
SYMATTR InstName U2
SYMBOL cap -960 1072 R90
WINDOW 0 0 32 VBottom 2
WINDOW 3 32 32 VTop 2
SYMATTR InstName C5
SYMATTR Value 0.01µ
SYMBOL cap -1392 960 R90
WINDOW 0 0 32 VBottom 2
WINDOW 3 32 32 VTop 2
SYMATTR InstName C4
SYMATTR Value 6µ
SYMBOL voltage -912 912 R270
WINDOW 0 24 96 Left 2
WINDOW 3 24 16 Left 2
WINDOW 123 0 0 Left 0
WINDOW 39 0 0 Left 0
SYMATTR InstName V3
SYMATTR Value 12
SYMBOL res -1280 1216 R180
WINDOW 0 36 76 Left 2
WINDOW 3 36 40 Left 2
SYMATTR InstName R2
SYMATTR Value 2k
SYMBOL cap -1760 1056 R0
SYMATTR InstName C6
SYMATTR Value 0.01µ
SYMBOL voltage -1840 1184 R180
WINDOW 0 24 96 Left 2
WINDOW 3 24 16 Left 2
WINDOW 123 0 0 Left 0
WINDOW 39 0 0 Left 0
SYMATTR InstName V4
SYMATTR Value 12
SYMBOL voltage -1840 976 R180
WINDOW 123 0 0 Left 0
WINDOW 39 0 0 Left 0
SYMATTR InstName V5
SYMATTR Value 12
SYMBOL LM741 -1840 960 M0
SYMATTR InstName U3
SYMBOL diode -1664 1056 R270
WINDOW 0 32 32 VTop 2
WINDOW 3 0 32 VBottom 2
SYMATTR InstName D1
SYMATTR Value RB421D
SYMBOL Misc\\NE555 336 1232 R0
SYMATTR InstName U7
SYMBOL res 832 1168 R0
SYMATTR InstName R6
SYMATTR Value 3K
SYMBOL res 832 1008 R0
SYMATTR InstName R7
SYMATTR Value 5K
SYMBOL cap 832 1360 R0
SYMATTR InstName C11
SYMATTR Value 0.15µ
SYMBOL res -32 1056 R0
SYMATTR InstName R8
SYMATTR Value 10K
SYMBOL voltage -224 1120 R0
SYMATTR InstName V10
SYMATTR Value 5
TEXT -608 -48 Left 2 !.tran 0.1
TEXT -8 -264 Left 2 ;Senoidal
TEXT -1328 744 Left 2 ;Diente de sierra
TEXT 304 928 Left 2 ;Cuadrada
